155792348
  -OEChem-01192510123D

 56 59  0     0  0  0  0  0  0999 V2000
   -2.3755    4.3585    0.0665 S   0  0  0  0  0  0  0  0  0  0  0  0
    0.9146    1.0412    0.4082 O   0  0  0  0  0  0  0  0  0  0  0  0
    3.7717    1.6375   -1.7225 O   0  0  0  0  0  0  0  0  0  0  0  0
   -1.9963    1.8033    0.1654 N   0  0  0  0  0  0  0  0  0  0  0  0
   -0.0345    3.1975    0.2761 N   0  0  0  0  0  0  0  0  0  0  0  0
   -0.0160   -2.2069   -0.8945 N   0  0  0  0  0  0  0  0  0  0  0  0
    3.4273    1.9735    0.5474 N   0  0  0  0  0  0  0  0  0  0  0  0
    8.0542   -2.4808    0.5925 N   0  0  0  0  0  0  0  0  0  0  0  0
   -4.5942   -2.5985    1.3452 C   0  0  0  0  0  0  0  0  0  0  0  0
   -3.8403   -3.6271    0.4794 C   0  0  0  0  0  0  0  0  0  0  0  0
   -4.9057   -1.3220    0.6395 C   0  0  0  0  0  0  0  0  0  0  0  0
   -3.9982   -0.2634    0.6783 C   0  0  0  0  0  0  0  0  0  0  0  0
   -4.2902    0.9300    0.0181 C   0  0  0  0  0  0  0  0  0  0  0  0
   -2.4996   -3.1292   -0.0028 C   0  0  0  0  0  0  0  0  0  0  0  0
   -6.1051   -1.1871   -0.0596 C   0  0  0  0  0  0  0  0  0  0  0  0
   -5.4896    1.0649   -0.6810 C   0  0  0  0  0  0  0  0  0  0  0  0
   -3.3562    2.0203    0.0579 C   0  0  0  0  0  0  0  0  0  0  0  0
   -6.3970    0.0063   -0.7199 C   0  0  0  0  0  0  0  0  0  0  0  0
   -1.3585   -3.3475    0.7612 C   0  0  0  0  0  0  0  0  0  0  0  0
   -2.4003   -2.4502   -1.2121 C   0  0  0  0  0  0  0  0  0  0  0  0
   -3.7529    3.3395   -0.0077 C   0  0  0  0  0  0  0  0  0  0  0  0
   -1.3808    2.9647    0.1801 C   0  0  0  0  0  0  0  0  0  0  0  0
   -0.1516   -2.8706    0.2755 C   0  0  0  0  0  0  0  0  0  0  0  0
   -1.1468   -2.0136   -1.6097 C   0  0  0  0  0  0  0  0  0  0  0  0
    2.3830    2.9476    0.4222 C   0  0  0  0  0  0  0  0  0  0  0  0
    1.0292    2.2624    0.3831 C   0  0  0  0  0  0  0  0  0  0  0  0
    5.0943    0.3762   -0.2537 C   0  0  0  0  0  0  0  0  0  0  0  0
    4.0478    1.3872   -0.5523 C   0  0  0  0  0  0  0  0  0  0  0  0
    5.3670   -0.6383   -1.1712 C   0  0  0  0  0  0  0  0  0  0  0  0
    5.8042    0.4416    0.9452 C   0  0  0  0  0  0  0  0  0  0  0  0
    7.0596   -1.5221    0.3089 C   0  0  0  0  0  0  0  0  0  0  0  0
    6.3496   -1.5874   -0.8900 C   0  0  0  0  0  0  0  0  0  0  0  0
    6.7869   -0.5076    1.2264 C   0  0  0  0  0  0  0  0  0  0  0  0
   -4.0123   -2.3823    2.2513 H   0  0  0  0  0  0  0  0  0  0  0  0
   -5.5258   -3.0556    1.7035 H   0  0  0  0  0  0  0  0  0  0  0  0
   -4.4538   -3.9098   -0.3863 H   0  0  0  0  0  0  0  0  0  0  0  0
   -3.6994   -4.5493    1.0576 H   0  0  0  0  0  0  0  0  0  0  0  0
   -3.0711   -0.3714    1.2375 H   0  0  0  0  0  0  0  0  0  0  0  0
   -6.8190   -2.0056   -0.1004 H   0  0  0  0  0  0  0  0  0  0  0  0
   -5.7449    1.9719   -1.2228 H   0  0  0  0  0  0  0  0  0  0  0  0
   -7.3289    0.1092   -1.2682 H   0  0  0  0  0  0  0  0  0  0  0  0
   -1.4006   -3.8711    1.7101 H   0  0  0  0  0  0  0  0  0  0  0  0
   -3.2666   -2.2675   -1.8386 H   0  0  0  0  0  0  0  0  0  0  0  0
   -4.7435    3.7665   -0.0809 H   0  0  0  0  0  0  0  0  0  0  0  0
    0.7675   -3.0137    0.8340 H   0  0  0  0  0  0  0  0  0  0  0  0
   -1.0157   -1.4794   -2.5450 H   0  0  0  0  0  0  0  0  0  0  0  0
    0.2190    4.1826    0.2652 H   0  0  0  0  0  0  0  0  0  0  0  0
    2.4295    3.6096    1.2920 H   0  0  0  0  0  0  0  0  0  0  0  0
    2.5195    3.5333   -0.4924 H   0  0  0  0  0  0  0  0  0  0  0  0
    3.6487    1.6630    1.4873 H   0  0  0  0  0  0  0  0  0  0  0  0
    4.8215   -0.7088   -2.1086 H   0  0  0  0  0  0  0  0  0  0  0  0
    5.6446    1.2321    1.6723 H   0  0  0  0  0  0  0  0  0  0  0  0
    6.5524   -2.3737   -1.6127 H   0  0  0  0  0  0  0  0  0  0  0  0
    7.3384   -0.4423    2.1610 H   0  0  0  0  0  0  0  0  0  0  0  0
    8.2508   -3.2180   -0.0713 H   0  0  0  0  0  0  0  0  0  0  0  0
    8.5677   -2.4354    1.4627 H   0  0  0  0  0  0  0  0  0  0  0  0
  1 21  1  0  0  0  0
  1 22  1  0  0  0  0
  2 26  2  0  0  0  0
  3 28  2  0  0  0  0
  4 17  1  0  0  0  0
  4 22  2  0  0  0  0
  5 22  1  0  0  0  0
  5 26  1  0  0  0  0
  5 47  1  0  0  0  0
  6 23  2  0  0  0  0
  6 24  1  0  0  0  0
  7 25  1  0  0  0  0
  7 28  1  0  0  0  0
  7 50  1  0  0  0  0
  8 31  1  0  0  0  0
  8 55  1  0  0  0  0
  8 56  1  0  0  0  0
  9 10  1  0  0  0  0
  9 11  1  0  0  0  0
  9 34  1  0  0  0  0
  9 35  1  0  0  0  0
 10 14  1  0  0  0  0
 10 36  1  0  0  0  0
 10 37  1  0  0  0  0
 11 12  2  0  0  0  0
 11 15  1  0  0  0  0
 12 13  1  0  0  0  0
 12 38  1  0  0  0  0
 13 16  2  0  0  0  0
 13 17  1  0  0  0  0
 14 19  2  0  0  0  0
 14 20  1  0  0  0  0
 15 18  2  0  0  0  0
 15 39  1  0  0  0  0
 16 18  1  0  0  0  0
 16 40  1  0  0  0  0
 17 21  2  0  0  0  0
 18 41  1  0  0  0  0
 19 23  1  0  0  0  0
 19 42  1  0  0  0  0
 20 24  2  0  0  0  0
 20 43  1  0  0  0  0
 21 44  1  0  0  0  0
 23 45  1  0  0  0  0
 24 46  1  0  0  0  0
 25 26  1  0  0  0  0
 25 48  1  0  0  0  0
 25 49  1  0  0  0  0
 27 28  1  0  0  0  0
 27 29  2  0  0  0  0
 27 30  1  0  0  0  0
 29 32  1  0  0  0  0
 29 51  1  0  0  0  0
 30 33  2  0  0  0  0
 30 52  1  0  0  0  0
 31 32  2  0  0  0  0
 31 33  1  0  0  0  0
 32 53  1  0  0  0  0
 33 54  1  0  0  0  0
M  END
> <PUBCHEM_COMPOUND_CID>
155792348

> <PUBCHEM_CONFORMER_RMSD>
1.4

> <PUBCHEM_CONFORMER_DIVERSEORDER>
1
97
129
101
115
85
66
17
130
108
57
90
133
148
103
117
99
5
19
28
147
45
114
93
131
78
70
122
140
112
134
135
18
77
27
142
72
51
84
100
98
63
88
80
118
58
146
56
86
67
124
139
81
87
105
94
46
29
64
49
137
12
52
16
95
111
143
102
138
44
136
3
74
91
73
69
43
144
76
24
121
89
42
79
20
92
119
53
149
11
123
26
128
47
145
141
82
116
120
107
127
10
75
96
13
21
32
113
9
104
41
68
4
110
54
34
60
109
25
132
55
30
31
61
2
126
14
39
36
48
62
33
83
106
37
8
38
23
35
65
22
59
71
6
125
15
40
7
50

> <PUBCHEM_MMFF94_PARTIAL_CHARGES>
50
1 -0.08
10 0.14
11 -0.14
12 -0.15
13 0.05
14 -0.14
15 -0.15
16 -0.15
17 0.17
18 -0.15
19 -0.15
2 -0.57
20 -0.15
21 -0.11
22 0.44
23 0.16
24 0.16
25 0.36
26 0.57
27 0.09
28 0.54
29 -0.15
3 -0.57
30 -0.15
31 0.1
32 -0.15
33 -0.15
38 0.15
39 0.15
4 -0.57
40 0.15
41 0.15
42 0.15
43 0.15
44 0.15
45 0.15
46 0.15
47 0.37
5 -0.49
50 0.37
51 0.15
52 0.15
53 0.15
54 0.15
55 0.4
56 0.4
6 -0.62
7 -0.73
8 -0.9
9 0.14

> <PUBCHEM_EFFECTIVE_ROTOR_COUNT>
10

> <PUBCHEM_PHARMACOPHORE_FEATURES>
11
1 2 acceptor
1 3 acceptor
1 5 donor
1 6 acceptor
1 7 donor
1 8 cation
1 8 donor
5 1 4 17 21 22 rings
6 11 12 13 15 16 18 rings
6 27 29 30 31 32 33 rings
6 6 14 19 20 23 24 rings

> <PUBCHEM_HEAVY_ATOM_COUNT>
33

> <PUBCHEM_ATOM_DEF_STEREO_COUNT>
0

> <PUBCHEM_ATOM_UDEF_STEREO_COUNT>
0

> <PUBCHEM_BOND_DEF_STEREO_COUNT>
0

> <PUBCHEM_BOND_UDEF_STEREO_COUNT>
0

> <PUBCHEM_ISOTOPIC_ATOM_COUNT>
0

> <PUBCHEM_COMPONENT_COUNT>
1

> <PUBCHEM_CACTVS_TAUTO_COUNT>
-1

> <PUBCHEM_CONFORMER_ID>
094933DC00000001

> <PUBCHEM_MMFF94_ENERGY>
93.983

> <PUBCHEM_FEATURE_SELFOVERLAP>
55.822

> <PUBCHEM_SHAPE_FINGERPRINT>
10864689 126 17909275680725557684
10939801 23 18340768265049759732
11135609 12 18337945801320988240
11135609 99 18412261719512513588
11135926 11 18339074866724534989
117089 54 18118130392112005659
11756154 5 18410567401346693520
11756154 67 18409170970630524316
11828532 37 18191594262218197255
12422481 6 17988097680297604682
12645989 146 18198906005778932711
12838863 1 18271234006836617607
13383668 90 17169274736942897868
13402501 40 18342744043956941861
1361 4 18410014364547160244
13782708 43 18272932717556943584
14117953 113 18411129226572571301
14150023 24 17908716034030554433
14279260 333 18187358797504572890
14289585 56 16950556658430661820
14725015 67 18412543224000289345
14866123 147 18411133611217280534
15001296 14 18261103132230371920
15042514 8 18410856585425891928
15183329 4 18411706499878070530
15274700 232 18194408784584379598
15274700 259 17533192221608225719
15439362 3 17472693633820366445
15684393 108 17386585685189511846
15927050 60 18053947243656601273
15968369 153 18130503110949646300
17627616 140 18118962494817706419
19301676 85 18266171911221632119
19311894 1 18266176309135878371
19611394 137 17971203758117324107
20721686 56 18411697729301664091
21304304 249 18411134727560585805
23559900 14 18265889341081248961
24893992 56 18337675317582468507
32027 91 18269270321861008673
3383291 50 18412259532288041714
338550 245 18408044022398155588
373842 8 18339641114664265030
392239 28 18340498828359607399
42767 46 18114456774119804002
437795 96 18272092686272906342
44880168 125 18271240638360853355
5085150 59 18342451491747748415
513202 73 18334866060049554747
6138700 20 18411416216049633621
636783 150 18408613565274705746
636783 77 18268700783934021200
6437827 68 18411983580617583456
9896288 288 18057324976766248552

> <PUBCHEM_SHAPE_MULTIPOLES>
646.33
18.78
5.59
1.16
30.2
1.49
-0.21
-8.43
1.21
-4.74
0.59
0.51
-0.49
0.52

> <PUBCHEM_SHAPE_SELFOVERLAP>
1390.555

> <PUBCHEM_SHAPE_VOLUME>
355.7

> <PUBCHEM_COORDINATE_TYPE>
2
5
10

$$$$
